Version 4
SHEET 1 3940 1160
WIRE -288 -128 -288 -160
WIRE 912 -128 880 -128
WIRE 768 -112 736 -112
WIRE 880 -112 880 -128
WIRE 880 -112 832 -112
WIRE 880 -96 880 -112
WIRE -688 -80 -848 -80
WIRE -560 -80 -608 -80
WIRE -288 16 -288 -48
WIRE -48 16 -48 -32
WIRE -32 16 -48 16
WIRE 80 16 48 16
WIRE 384 16 336 16
WIRE 464 16 464 -16
WIRE 464 16 384 16
WIRE -816 32 -848 32
WIRE -672 32 -736 32
WIRE -48 64 -48 16
WIRE 384 64 384 16
WIRE 464 64 464 16
WIRE 784 112 720 112
WIRE 208 176 208 112
WIRE -48 192 -48 128
WIRE 384 192 384 128
WIRE 464 192 464 144
WIRE -432 288 -528 288
WIRE -336 288 -432 288
WIRE -288 288 -336 288
WIRE 784 288 736 288
WIRE 880 288 880 240
WIRE 880 288 848 288
WIRE -528 336 -528 288
WIRE -432 336 -432 288
WIRE -336 336 -336 288
WIRE 768 384 736 384
WIRE 880 384 880 288
WIRE 880 384 848 384
WIRE 928 384 880 384
WIRE -928 448 -960 448
WIRE -816 448 -848 448
WIRE -704 448 -736 448
WIRE -528 448 -528 400
WIRE -528 448 -624 448
WIRE 256 480 256 432
WIRE 320 480 256 480
WIRE 320 528 320 480
WIRE 320 528 288 528
WIRE 352 528 320 528
WIRE 288 560 288 528
WIRE 352 560 352 528
WIRE -1200 576 -1424 576
WIRE -960 576 -960 448
WIRE -960 576 -1120 576
WIRE -928 576 -960 576
WIRE -816 576 -848 576
WIRE -704 576 -736 576
WIRE -432 576 -432 400
WIRE -432 576 -624 576
WIRE 256 656 256 480
WIRE 256 656 240 656
WIRE 288 656 288 624
WIRE 352 656 352 624
WIRE 352 656 288 656
WIRE 800 656 800 624
WIRE 864 656 864 592
WIRE 864 656 800 656
WIRE 896 656 864 656
WIRE 992 656 976 656
WIRE 1120 656 1120 592
WIRE 1120 656 1072 656
WIRE 1168 656 1120 656
WIRE 1312 656 1264 656
WIRE 800 688 800 656
WIRE -960 704 -960 576
WIRE -928 704 -960 704
WIRE -816 704 -848 704
WIRE -704 704 -736 704
WIRE -336 704 -336 400
WIRE -336 704 -624 704
WIRE -80 704 -80 672
WIRE -16 704 -80 704
WIRE 112 704 64 704
WIRE 272 704 240 704
WIRE 272 720 272 704
WIRE 384 720 272 720
WIRE 528 720 464 720
WIRE 592 720 592 608
WIRE 592 720 528 720
WIRE -528 752 -528 448
WIRE -432 752 -432 576
WIRE -336 752 -336 704
WIRE 112 752 48 752
WIRE 272 752 272 720
WIRE 272 752 240 752
WIRE 528 752 528 720
WIRE 1312 752 1312 656
WIRE 864 784 864 656
WIRE 944 784 864 784
WIRE 1120 784 1120 656
WIRE 1120 784 1008 784
WIRE 416 800 240 800
WIRE 800 816 800 752
WIRE 416 848 416 800
WIRE 528 848 528 832
WIRE -528 864 -528 816
WIRE -432 864 -432 816
WIRE -432 864 -528 864
WIRE -336 864 -336 816
WIRE -336 864 -432 864
WIRE 1216 864 1216 736
WIRE 1248 864 1216 864
WIRE -432 880 -432 864
FLAG -48 -32 18V
IOPIN -48 -32 Out
FLAG 464 -16 5V
IOPIN 464 -16 Out
FLAG -80 672 3V3_PWM
IOPIN -80 672 In
FLAG 256 432 18V
IOPIN 256 432 In
FLAG 592 608 Opto_Signal
IOPIN 592 608 Out
FLAG -560 -80 18V
IOPIN -560 -80 Out
FLAG 800 624 REC+
IOPIN 800 624 Out
FLAG -672 32 3V3_PWM
IOPIN -672 32 Out
FLAG -288 288 REC+
IOPIN -288 288 Out
FLAG 864 592 A+
IOPIN 864 592 Out
FLAG 1120 592 A-
IOPIN 1120 592 Out
FLAG -288 16 CSENSE
IOPIN -288 16 Out
FLAG 912 -128 18V
IOPIN 912 -128 Out
FLAG 928 384 12V
IOPIN 928 384 Out
FLAG 1248 864 Opto_Signal
IOPIN 1248 864 Out
FLAG -336 864 REC-
IOPIN -336 864 Out
FLAG -432 880 0
FLAG -1424 576 0
FLAG -848 -80 0
FLAG -848 32 0
FLAG -288 -160 0
FLAG 48 752 0
FLAG 416 848 0
FLAG 528 848 0
FLAG 800 816 0
FLAG 1312 752 0
FLAG 736 384 0
FLAG 736 288 0
FLAG 720 112 0
FLAG 736 -112 0
FLAG 464 192 0
FLAG 384 192 0
FLAG 208 176 0
FLAG -48 192 0
SYMBOL ZZZ\\VolReg\\LM7805-1 208 16 R0
SYMATTR InstName U1
SYMBOL cap 368 64 R0
SYMATTR InstName C1
SYMATTR Value 0.1µ
SYMATTR SpiceLine V=10 Irms=0 Rser=0.0163 Lser=375p mfg="Würth Elektronik" pn="885012207016 WCAP-CSGP 0805" type="X7R"
SYMBOL cap -64 64 R0
WINDOW 3 24 55 Left 2
SYMATTR Value 0.33µ
SYMATTR InstName C2
SYMBOL ZZZ\\OPTO\\HCPL-3120 176 720 R0
SYMATTR InstName U3
SYMBOL res 80 688 R90
WINDOW 0 0 56 VBottom 2
WINDOW 3 32 56 VTop 2
SYMATTR InstName R10
SYMATTR Value 220
SYMBOL cap 272 560 R0
SYMATTR InstName C4
SYMATTR Value 0.01µ
SYMATTR SpiceLine V=25 Irms=0 Rser=0.0262 Lser=534p mfg="Würth Elektronik" pn="885012008030 WCAP-CSGP 1206" type="NP0"
SYMBOL cap 336 560 R0
SYMATTR InstName C5
SYMATTR Value 0.1µ
SYMATTR SpiceLine V=50 Irms=0 Rser=0.0808 Lser=1.08n mfg="Würth Elektronik" pn="885382208003 WCAP-CSST 1206" type="X7R"
SYMBOL voltage -592 -80 R90
WINDOW 123 0 0 Left 0
WINDOW 39 0 0 Left 0
SYMATTR InstName V5
SYMATTR Value 18
SYMBOL voltage -720 32 R90
WINDOW 0 -32 56 VBottom 2
WINDOW 3 32 56 VTop 2
WINDOW 123 0 0 Left 0
WINDOW 39 0 0 Left 0
SYMATTR InstName V3
SYMATTR Value PULSE(0 3.3 1n 1n 1n 0.1m 0.5m)
SYMBOL voltage -832 448 R90
WINDOW 0 -32 56 VBottom 2
WINDOW 3 32 56 VTop 2
WINDOW 123 0 0 Left 0
WINDOW 39 0 0 Left 0
SYMATTR InstName V7
SYMATTR Value SINE(0 109 50)
SYMBOL voltage -832 576 R90
WINDOW 0 -32 56 VBottom 2
WINDOW 3 32 56 VTop 2
WINDOW 123 0 0 Left 0
WINDOW 39 0 0 Left 0
SYMATTR InstName V8
SYMATTR Value SINE(0 109 50 0 0 -120)
SYMBOL voltage -832 704 R90
WINDOW 0 -32 56 VBottom 2
WINDOW 3 32 56 VTop 2
WINDOW 123 0 0 Left 0
WINDOW 39 0 0 Left 0
SYMATTR InstName V9
SYMATTR Value SINE(0 109 50 0 0 120)
SYMBOL res -720 432 R90
WINDOW 0 0 56 VBottom 2
WINDOW 3 32 56 VTop 2
SYMATTR InstName R9
SYMATTR Value 0.001
SYMBOL ind -608 432 R90
WINDOW 0 5 56 VBottom 2
WINDOW 3 32 56 VTop 2
SYMATTR InstName L2
SYMATTR Value 10µ
SYMBOL res -720 560 R90
WINDOW 0 0 56 VBottom 2
WINDOW 3 32 56 VTop 2
SYMATTR InstName R13
SYMATTR Value 0.001
SYMBOL ind -608 560 R90
WINDOW 0 5 56 VBottom 2
WINDOW 3 32 56 VTop 2
SYMATTR InstName L3
SYMATTR Value 10µ
SYMBOL res -720 688 R90
WINDOW 0 0 56 VBottom 2
WINDOW 3 32 56 VTop 2
SYMATTR InstName R14
SYMATTR Value 0.001
SYMBOL ind -608 688 R90
WINDOW 0 5 56 VBottom 2
WINDOW 3 32 56 VTop 2
SYMATTR InstName L4
SYMATTR Value 10µ
SYMBOL diode -512 400 R180
WINDOW 0 24 64 Left 2
WINDOW 3 24 0 Left 2
SYMATTR InstName D2
SYMBOL diode -416 400 R180
WINDOW 0 24 64 Left 2
WINDOW 3 24 0 Left 2
SYMATTR InstName D3
SYMBOL diode -320 400 R180
WINDOW 0 24 64 Left 2
WINDOW 3 24 0 Left 2
SYMATTR InstName D4
SYMBOL diode -512 816 R180
WINDOW 0 24 64 Left 2
WINDOW 3 24 0 Left 2
SYMATTR InstName D5
SYMBOL diode -320 816 R180
WINDOW 0 24 64 Left 2
WINDOW 3 24 0 Left 2
SYMATTR InstName D7
SYMBOL diode -416 816 R180
WINDOW 0 24 64 Left 2
WINDOW 3 24 0 Left 2
SYMATTR InstName D6
SYMBOL polcap 816 688 M0
SYMATTR InstName C6
SYMATTR Value 940µ
SYMATTR Description Capacitor
SYMATTR Type cap
SYMATTR SpiceLine V=450 Irms=10 Rser=0.01 Lser=8n
SYMBOL res 992 640 R90
WINDOW 0 0 56 VBottom 2
WINDOW 3 32 56 VTop 2
SYMATTR InstName R1
SYMATTR Value 0.8
SYMBOL ind 1088 640 R90
WINDOW 0 5 56 VBottom 2
WINDOW 3 32 56 VTop 2
SYMATTR InstName L1
SYMATTR Value 12.5m
SYMBOL res 448 48 R0
SYMATTR InstName R15
SYMATTR Value 66
SYMBOL voltage -288 -32 R180
WINDOW 0 24 96 Left 2
WINDOW 3 24 16 Left 2
WINDOW 123 0 0 Left 0
WINDOW 39 0 0 Left 0
SYMATTR InstName V1
SYMATTR Value 4.5
SYMBOL ZZZ\\VolReg\\LM7812 880 112 R90
WINDOW 3 7 132 Left 2
SYMATTR InstName U4
SYMBOL cap 832 -128 R90
WINDOW 0 0 32 VBottom 2
WINDOW 3 32 32 VTop 2
SYMATTR InstName C8
SYMATTR Value 0.33µ
SYMBOL cap 848 272 R90
WINDOW 0 0 32 VBottom 2
WINDOW 3 32 32 VTop 2
SYMATTR InstName C9
SYMATTR Value 0.1µ
SYMBOL res 864 368 R90
WINDOW 0 0 56 VBottom 2
WINDOW 3 32 56 VTop 2
SYMATTR InstName R7
SYMATTR Value 171
SYMBOL res 864 -112 R0
SYMATTR InstName R8
SYMATTR Value 1
SYMBOL res 64 0 R90
WINDOW 0 0 56 VBottom 2
WINDOW 3 32 56 VTop 2
SYMATTR InstName R12
SYMATTR Value 1
SYMBOL ZZZ\\IGBT\\IGBT_ST 1216 688 R270
SYMATTR InstName U2
SYMBOL diode 1008 768 R90
WINDOW 0 0 32 VBottom 2
WINDOW 3 32 32 VTop 2
SYMATTR InstName D1
SYMBOL res 480 704 R90
WINDOW 0 0 56 VBottom 2
WINDOW 3 32 56 VTop 2
SYMATTR InstName R2
SYMATTR Value 220
SYMBOL res 512 736 R0
SYMATTR InstName R6
SYMATTR Value 10k
SYMBOL res -1104 560 R90
WINDOW 0 0 56 VBottom 2
WINDOW 3 32 56 VTop 2
SYMATTR InstName R3
SYMATTR Value 1000k
TEXT -112 -168 Left 2 ;Voltage regulator - 5V
TEXT -112 392 Left 2 ;Isolated gate driver
TEXT 704 488 Left 2 ;Buck converter test
TEXT -1040 -168 Left 2 ;Test inputs
TEXT -1040 288 Left 2 ;Three phase full bridge rectifier
TEXT 480 216 Left 1 ;Pico model \nfor low power \noperation
TEXT -1040 144 Left 1 ;CSENSE is analog voltages between 2.5V and 4.5V.\nWhile current is zero it gives 2.5V analog voltage signal\nand it increases with 66mV/A.
TEXT 704 -168 Left 2 ;Voltage regulator - 12V
TEXT -1056 944 Left 2 !.tran 0 60m 0 50u
LINE Normal 1040 432 1040 432 2
RECTANGLE Normal 640 896 -128 368 4
RECTANGLE Normal -160 896 -1056 256 4
RECTANGLE Normal 1424 464 688 896 4
RECTANGLE Normal 592 272 432 32 4
RECTANGLE Normal -128 -192 640 336 4
RECTANGLE Normal -160 -192 -1056 224 4
RECTANGLE Normal 1072 432 688 -192 4
