Version 4
SHEET 1 880 680
WIRE 272 -128 272 -176
WIRE -128 -112 -128 -144
WIRE -128 0 -128 -32
WIRE 192 0 -128 0
WIRE -128 32 -128 0
WIRE 272 32 272 -48
WIRE 192 48 192 0
WIRE 240 48 192 48
WIRE 368 64 304 64
WIRE 432 64 368 64
WIRE 592 64 512 64
WIRE 240 80 192 80
WIRE 368 96 368 64
WIRE 192 192 192 80
WIRE 368 192 368 176
WIRE 368 192 192 192
WIRE -128 208 -128 112
WIRE 368 208 368 192
WIRE 272 352 272 96
FLAG -128 -224 0
FLAG 272 -176 0
FLAG 272 432 0
FLAG 368 288 0
FLAG 592 64 0
FLAG -128 208 0
SYMBOL OpAmps\\UniversalOpAmp 272 64 M180
SYMATTR InstName U1
SYMBOL res -112 128 R180
WINDOW 0 36 76 Left 2
WINDOW 3 36 40 Left 2
SYMATTR InstName R5
SYMATTR Value 0.005
SYMBOL voltage -128 -128 R180
WINDOW 0 24 96 Left 2
WINDOW 3 24 16 Left 2
WINDOW 123 0 0 Left 0
WINDOW 39 0 0 Left 0
SYMATTR InstName V1
SYMATTR Value 20
SYMBOL voltage 272 -32 R180
WINDOW 0 24 96 Left 2
WINDOW 3 24 16 Left 2
WINDOW 123 0 0 Left 0
WINDOW 39 0 0 Left 0
SYMATTR InstName V2
SYMATTR Value -12
SYMBOL voltage 272 336 R0
WINDOW 123 0 0 Left 0
WINDOW 39 0 0 Left 0
SYMATTR InstName V3
SYMATTR Value 12
SYMBOL res -144 -128 R0
SYMATTR InstName R6
SYMATTR Value 0.8
SYMBOL res 352 192 R0
SYMATTR InstName R2
SYMATTR Value 1k
SYMBOL res 528 48 R90
WINDOW 0 0 56 VBottom 2
WINDOW 3 32 56 VTop 2
SYMATTR InstName R7
SYMATTR Value 100
SYMBOL res 352 80 R0
SYMATTR InstName R1
SYMATTR Value 18k
TEXT -216 392 Left 2 !.tran 0 1 0 10u
