Version 4
SHEET 1 880 680
WIRE 592 -352 592 -400
WIRE 432 -160 384 -160
WIRE 592 -160 592 -272
WIRE 592 -160 496 -160
WIRE 592 -112 592 -160
WIRE 432 -16 384 -16
WIRE 592 -16 592 -32
WIRE 592 -16 496 -16
WIRE 592 16 592 -16
WIRE -32 32 -32 0
WIRE 160 32 -32 32
WIRE 592 48 592 16
WIRE 160 96 160 32
WIRE 160 96 96 96
WIRE 224 96 160 96
WIRE 96 112 96 96
WIRE 224 112 224 96
WIRE 592 192 592 128
WIRE -80 208 -96 208
WIRE 96 208 96 176
WIRE 160 208 96 208
WIRE 224 208 224 176
WIRE 224 208 160 208
WIRE -464 224 -624 224
WIRE -272 224 -384 224
WIRE -80 224 -80 208
WIRE -32 224 -32 32
WIRE -32 224 -80 224
WIRE -272 256 -272 224
WIRE -224 256 -272 256
WIRE -64 256 -96 256
WIRE -64 272 -64 256
WIRE 192 272 -64 272
WIRE 416 272 272 272
WIRE 544 272 416 272
WIRE -224 304 -272 304
WIRE -64 304 -64 272
WIRE -64 304 -96 304
WIRE 416 304 416 272
WIRE -272 336 -272 304
WIRE 0 336 -80 336
WIRE -80 352 -80 336
WIRE -80 352 -96 352
WIRE 0 416 0 336
WIRE 160 416 160 208
WIRE 160 416 0 416
WIRE 416 416 416 384
WIRE 416 416 160 416
WIRE 592 416 592 288
WIRE 592 416 416 416
FLAG 592 -400 0
FLAG -272 336 0
FLAG -704 224 0
FLAG -32 -80 0
FLAG 592 416 0
FLAG 384 -16 0
FLAG 384 -160 0
FLAG 656 16 0
SYMBOL nmos 544 192 R0
SYMATTR InstName M1
SYMATTR Value STN3N45K3
SYMBOL voltage -608 224 R90
WINDOW 0 -32 56 VBottom 2
WINDOW 3 32 56 VTop 2
WINDOW 123 0 0 Left 0
WINDOW 39 0 0 Left 0
SYMATTR InstName V1
SYMATTR Value PULSE(0 3.3 1n 1n 1n 0.9m 1m)
SYMBOL voltage 592 -256 R180
WINDOW 0 24 96 Left 2
WINDOW 3 24 16 Left 2
WINDOW 123 0 0 Left 0
WINDOW 39 0 0 Left 0
SYMATTR InstName V2
SYMATTR Value 180
SYMBOL res 576 32 R0
SYMATTR InstName R1
SYMATTR Value 0.8
SYMBOL res -368 208 R90
WINDOW 0 0 56 VBottom 2
WINDOW 3 32 56 VTop 2
SYMATTR InstName R2
SYMATTR Value 220
SYMBOL voltage -32 16 R180
WINDOW 0 24 96 Left 2
WINDOW 3 24 16 Left 2
WINDOW 123 0 0 Left 0
WINDOW 39 0 0 Left 0
SYMATTR InstName V3
SYMATTR Value 18
SYMBOL res 400 288 R0
SYMATTR InstName R4
SYMATTR Value 1k
SYMBOL res 288 256 R90
WINDOW 0 0 56 VBottom 2
WINDOW 3 32 56 VTop 2
SYMATTR InstName R5
SYMATTR Value 10
SYMBOL cap 80 112 R0
SYMATTR InstName C2
SYMATTR Value 0.1µ
SYMATTR SpiceLine V=25 Irms=0 Rser=0.0189 Lser=443p mfg="Würth Elektronik" pn="885012206071R WCAP-CSGP 0603" type="X7R"
SYMBOL cap 208 112 R0
SYMATTR InstName C3
SYMATTR Value 10µ
SYMATTR SpiceLine V=25 Irms=0 Rser=0.0024 Lser=877p mfg="Würth Elektronik" pn="885012109013 WCAP-CSGP 1210" type="X5R"
SYMBOL ZZZ\\OPTO\\HCPL-3120 -160 272 R0
SYMATTR InstName U2
SYMBOL ind 576 -128 R0
SYMATTR InstName L1
SYMATTR Value 1m
SYMBOL polcap 496 -32 R90
WINDOW 0 0 32 VBottom 2
WINDOW 3 32 32 VTop 2
SYMATTR InstName C1
SYMATTR Value 1000µ
SYMATTR Description Capacitor
SYMATTR Type cap
SYMATTR SpiceLine V=400 Irms=2.85 Rser=0.0839 Lser=14.3n mfg="Würth Elektronik" pn="861021386035 WCAP-AIG5 35x60" type="Al electrolytic"
SYMBOL diode 432 -144 R270
WINDOW 0 32 32 VTop 2
WINDOW 3 0 32 VBottom 2
SYMATTR InstName D1
SYMATTR Value RFUH20NS4S
SYMBOL cap 656 0 R90
WINDOW 0 0 32 VBottom 2
WINDOW 3 32 32 VTop 2
SYMATTR InstName C4
SYMATTR Value 0.01µ
SYMATTR SpiceLine V=500 Irms=0 Rser=0.0478 Lser=358p mfg="Würth Elektronik" pn="885342207014 WCAP-CSMH 0805" type="X7R"
TEXT -848 440 Left 2 !.tran 0 200m 0 10u
